  /*--------------------------------*- C++ -*----------------------------------*
  | =========                 |                                                |
  | \\      /  F ield         | NEMoSys: Mesh Conversion interface             |
  |  \\    /   O peration     |                                                |
  |   \\  /    A nd           |                                                |
  |    \\/     M anipulation  |                                                |
  \*---------------------------------------------------------------------------*/
  
  FoamFile
  {
      version   2.0;
      format    ascii;
      class     dictionary;
      object    fvSolution;
  }

  // * * * * * * * * * * * * * * * * * * * * * * * * * * * * * * * * * * * * * //

  
  // ************************************************************************* //