/*--------------------------------*- C++ -*----------------------------------*\
  =========                 |
  \\      /  F ield         | OpenFOAM: The Open Source CFD Toolbox
   \\    /   O peration     | Website:  https://openfoam.org
    \\  /    A nd           | Version:  7
     \\/     M anipulation  |
\*---------------------------------------------------------------------------*/
FoamFile
{
    version     2.0;
    format      ascii;
    class       polyBoundaryMesh;
    location    "constant/polyMesh";
    object      boundary;
}
// * * * * * * * * * * * * * * * * * * * * * * * * * * * * * * * * * * * * * //

6
(
    up
    {
        type            patch;
        nFaces          100;
        startFace       2700;
    }
    down
    {
        type            patch;
        nFaces          100;
        startFace       2800;
    }
    in
    {
        type            patch;
        nFaces          100;
        startFace       2900;
    }
    out
    {
        type            patch;
        nFaces          100;
        startFace       3000;
    }
    front
    {
        type            patch;
        nFaces          100;
        startFace       3100;
    }
    back
    {
        type            patch;
        nFaces          100;
        startFace       3200;
    }
)

// ************************************************************************* //
