/*--------------------------------*- C++ -*----------------------------------*
| =========                   |                                                |
| \\      /  F ield         | NEMoSys: blockMesh interface                   |
|  \\    /   O peration     |                                                |
|   \\  /    A nd           |                                                |
|    \\/     M anipulation  |                                                |
\*---------------------------------------------------------------------------*/

FoamFile
{
    version   2.0;
    format    ascii;
    class     dictionary;
    location  "system";
    object    blockMeshDict;
}

// * * * * * * * * * * * * * * * * * * * * * * * * * * * * * * * //

convertToMeters 1.000000;

vertices
(

	(0.000000 0.000000 0.000000)
	(1.000000 0.000000 0.000000)
	(1.000000 1.000000 0.000000)
	(0.000000 1.000000 0.000000)
	(0.000000 0.000000 1.000000)
	(1.000000 0.000000 1.000000)
	(1.000000 1.000000 1.000000)
	(0.000000 1.000000 1.000000)

);

blocks
(
	hex (0 1 2 3 4 5 6 7) (40 40 40) simpleGrading (1.000000 1.000000 1.000000)

);

edges
(

);

patches
(

	patch up
	(
		(3 7 6 2)
	)
	patch down
	(
		(0 4 5 1)
	)
	patch in
	(
		(3 7 4 0)
	)
	patch out
	(
		(2 6 5 1)
	)
	patch front
	(
		(0 1 2 3)
	)
	patch back
	(
		(4 5 6 7)
	)

);

mergePatchPairs
(
);

 //* * * * * * * * * * * * * * * * * * * * * * * * * * * * * * * *//