  /*--------------------------------*- C++ -*----------------------------------*
  | =========                 |                                                |
  | \\      /  F ield         | NEMoSys: Mesh Conversion interface             |
  |  \\    /   O peration     |                                                |
  |   \\  /    A nd           |                                                |
  |    \\/     M anipulation  |                                                |
  \*---------------------------------------------------------------------------*/
  
  FoamFile
  {
      version   2.0;
      format    ascii;
      class     dictionary;
      object    fvSchemes;
  }

  // * * * * * * * * * * * * * * * * * * * * * * * * * * * * * * * * * * * * * //

  gradSchemes
  {
      default         Gauss linear;
      grad(p)         Gauss linear;
  }
  
  divSchemes
  {
      default         none;
      div(phi,U)      Gauss linear;
  }
  
  laplacianSchemes
  {
      default         none;
      laplacian(nu,U) Gauss linear corrected;
      laplacian((1|A(U)),p) Gauss linear corrected;
  }
  // ************************************************************************* //